# Neighbour list.
neighbor        5.0 bin
neigh_modify    check yes

# Force field definition.
boundary p p p
units real
atom_style hybrid molecular ellipsoid
# gamma upsilon mu lj_cutoff coul_cutoff
pair_style molc/long 1 1 -3 14.0 14.0
kspace_style pppm/molc 1e-4

# ----------------- Atom Definition Section -----------------

read_data "output.data"
Reading data file ...
  orthogonal box = (-12.8 -12.8 -12.8) to (12.8 12.8 12.8)
  reading atoms ...
  64 atoms
  64 ellipsoids
Finding 1-2 1-3 1-4 neighbors ...
     0 = max # of 1-2 neighbors
     0 = max # of 1-3 neighbors
     0 = max # of 1-4 neighbors
     1 = max # of special neighbors

# ----------------- Settings Section -----------------

include "output.in.settings"
mass 1  18.0152

# MOLC parameters.
# epsilon0, sigma0, eps_x, eps_y, eps_z, n_charges, (xi, yi, zi, qi)_ntimes
pair_coeff 1 1 0.18519 3.1589 1 1 1 3 0.00000  0.154600  0.0  -1.1128 0.75695  0.585882  0.0   0.5564 -0.75695  0.585882  0.0   0.5564

# ----------------- Run Section -----------------

include "output.in.run"
# Derived variables.
variable d       equal $p*$s        # thermo interval
variable d       equal 1000*$s
variable d       equal 1000*5
variable dcycle  equal $d            # dump interval (same as thermo)
variable dcycle  equal 5000
variable tcouple equal 10*100
variable pcouple equal 10*1000

# Create a random seed.
shell dd if=/dev/urandom of=/tmp/random_number count=2 bs=1
shell od -An --format=dI /tmp/random_number > /tmp/seed
variable s1 file /tmp/seed
variable s2 equal abs(v_s1)
Random Seed 25155
variable r1 equal random(10000,1000000,25155)

# Physical observables.
compute q               all property/atom quatw quati quatj quatk
compute diameter        all property/atom shapex shapey shapez
compute temp_trasl      all temp
compute temp_rototrasl  all temp/asphere dof all
compute press_trasl     all pressure temp_trasl pair kspace bond

# Output.
thermo       $d
thermo       5000
thermo_style custom step etotal evdwl ecoul elong ebond ke pe temp press vol density cpu
thermo_modify temp temp_rototrasl press press_trasl flush yes
dump 1 all custom 5000 output.dump id type xu yu zu c_q[1] c_q[2] c_q[3] c_q[4] c_diameter[1] c_diameter[2] c_diameter[3] vx vy vz angmomx angmomy angmomz mol
dump_modify 1 colname c_q[1] quatw colname c_q[2] quati colname c_q[3] quatj colname c_q[4] quatk

# 1. Shrink the cell in short runs.
timestep        10
velocity        all create 298.15 391624 dist gaussian
fix             2 all nph/asphere iso 1. 1. 10000
fix_modify      2 press press_trasl
variable r format r1 %.0f
fix             3 all langevin 298.15 298.15 1000 $r angmom 0.9
fix             3 all langevin 298.15 298.15 1000 445939 angmom 0.9
fix_modify      3 temp temp_rototrasl
# 0.1 ns per cycle.
label    cycle1
variable i loop 50
*** Shrinking step 1/50 ***
run    100
PPPM/MOlC initialization ...
  G vector (1/distance) = 0.18542426
  grid = 9 9 9
  stencil order = 5
  estimated absolute RMS force accuracy = 0.019684411
  estimated relative force accuracy = 5.9279018e-05
  3d grid and FFT values/proc = 4096 729
Generated 0 of 0 mixed pair_coeff terms from arithmetic mixing rule
  update every 1 steps, delay 10 steps, check yes
Step         TotEng         E_vdwl         E_coul         E_long         E_bond         KinEng         PotEng          Temp          Press          Volume        Density          CPU
0   20.845652     -2.6734983      4096.9913     -4129.462       0              55.989897     -35.144245      147.90118     -181.21179      16777.216      0.11411644     0
Loop time of 0.0511892 on 1 procs for 100 steps with 64 atoms

variable r format r1 %.0f
next   i
jump SELF cycle1
variable i loop 50
*** Shrinking step 2/50 ***
run    100
PPPM/MOlC initialization ...
  G vector (1/distance) = 0.1861285
  grid = 9 9 9
  stencil order = 5
  estimated absolute RMS force accuracy = 0.019024429
  estimated relative force accuracy = 5.7291504e-05
  3d grid and FFT values/proc = 4096 729
Generated 0 of 0 mixed pair_coeff terms from arithmetic mixing rule
Step         TotEng         E_vdwl         E_coul         E_long         E_bond         KinEng         PotEng          Temp          Press          Volume        Density          CPU
100   4.4938085      12.620674      3962.8502     -4135.8987      0              164.92161     -160.4278       435.65184     -343.19474      16210.231      0.11810789     0
Loop time of 0.0537391 on 1 procs for 100 steps with 64 atoms

variable r format r1 %.0f
next   i
jump SELF cycle1
variable i loop 50
*** Shrinking step 3/50 ***
run    100
PPPM/MOlC initialization ...
  G vector (1/distance) = 0.1884527
  grid = 9 9 9
  stencil order = 5
  estimated absolute RMS force accuracy = 0.016981855
  estimated relative force accuracy = 5.1140353e-05
  3d grid and FFT values/proc = 4096 729
Generated 0 of 0 mixed pair_coeff terms from arithmetic mixing rule
Step         TotEng         E_vdwl         E_coul         E_long         E_bond         KinEng         PotEng          Temp          Press          Volume        Density          CPU
200  -115.32502      50.899172      3847.2974     -4185.5524      0              172.03079     -287.35581      454.43123     -270.86096      14460.583      0.13239827     0
Loop time of 0.0598374 on 1 procs for 100 steps with 64 atoms

variable r format r1 %.0f
next   i
jump SELF cycle1
variable i loop 50
*** Shrinking step 4/50 ***
run    100
PPPM/MOlC initialization ...
  G vector (1/distance) = 0.18435159
  grid = 8 8 8
  stencil order = 5
  estimated absolute RMS force accuracy = 0.02473382
  estimated relative force accuracy = 7.4485165e-05
  3d grid and FFT values/proc = 3375 512
Generated 0 of 0 mixed pair_coeff terms from arithmetic mixing rule
Step         TotEng         E_vdwl         E_coul         E_long         E_bond         KinEng         PotEng          Temp          Press          Volume        Density          CPU
300  -195.91169      61.921829      3676.421      -4094.8838      0              160.6293      -356.54099      424.3134      -446.51335      12414.286      0.15422201     0
Loop time of 0.0594985 on 1 procs for 100 steps with 64 atoms

variable r format r1 %.0f
next   i
jump SELF cycle1
variable i loop 50
*** Shrinking step 5/50 ***
run    100
PPPM/MOlC initialization ...
  G vector (1/distance) = 0.18727092
  grid = 8 8 8
  stencil order = 5
  estimated absolute RMS force accuracy = 0.021472796
  estimated relative force accuracy = 6.4664688e-05
  3d grid and FFT values/proc = 3375 512
Generated 0 of 0 mixed pair_coeff terms from arithmetic mixing rule
Step         TotEng         E_vdwl         E_coul         E_long         E_bond         KinEng         PotEng          Temp          Press          Volume        Density          CPU
400  -300.3769       96.749656      3634.0544     -4165.2101      0              134.02917     -434.40607      354.04732      112.54936      10765.309      0.17784498     0
Loop time of 0.0656945 on 1 procs for 100 steps with 64 atoms

variable r format r1 %.0f
next   i
jump SELF cycle1
variable i loop 50
*** Shrinking step 6/50 ***
run    100
PPPM/MOlC initialization ...
  G vector (1/distance) = 0.18987929
  grid = 8 8 8
  stencil order = 5
  estimated absolute RMS force accuracy = 0.01888527
  estimated relative force accuracy = 5.687243e-05
  3d grid and FFT values/proc = 3375 512
Generated 0 of 0 mixed pair_coeff terms from arithmetic mixing rule
Step         TotEng         E_vdwl         E_coul         E_long         E_bond         KinEng         PotEng          Temp          Press          Volume        Density          CPU
500  -341.71195      87.465902      3656.3837     -4224.67        0              139.10852     -480.82047      367.46476     -548.96504      9463.6895      0.20230548     0
Loop time of 0.0748983 on 1 procs for 100 steps with 64 atoms

variable r format r1 %.0f
next   i
jump SELF cycle1
variable i loop 50
*** Shrinking step 7/50 ***
run    100
PPPM/MOlC initialization ...
  G vector (1/distance) = 0.19272078
  grid = 8 8 8
  stencil order = 5
  estimated absolute RMS force accuracy = 0.016383658
  estimated relative force accuracy = 4.9338899e-05
  3d grid and FFT values/proc = 3375 512
Generated 0 of 0 mixed pair_coeff terms from arithmetic mixing rule
Step         TotEng         E_vdwl         E_coul         E_long         E_bond         KinEng         PotEng          Temp          Press          Volume        Density          CPU
600  -382.43894      85.804029      3680.9536     -4288.6243      0              139.42773     -521.86667      368.30798     -894.03427      8209.7193      0.23320605     0
Loop time of 0.0823672 on 1 procs for 100 steps with 64 atoms

variable r format r1 %.0f
next   i
jump SELF cycle1
variable i loop 50
*** Shrinking step 8/50 ***
run    100
PPPM/MOlC initialization ...
  G vector (1/distance) = 0.1954237
  grid = 8 8 8
  stencil order = 5
  estimated absolute RMS force accuracy = 0.014281329
  estimated relative force accuracy = 4.3007798e-05
  3d grid and FFT values/proc = 3375 512
Generated 0 of 0 mixed pair_coeff terms from arithmetic mixing rule
Step         TotEng         E_vdwl         E_coul         E_long         E_bond         KinEng         PotEng          Temp          Press          Volume        Density          CPU
700  -403.08728      82.452231      3727.6144     -4344.1457      0              130.99181     -534.07909      346.02391     -963.91837      7158.0687      0.26746827     0
Loop time of 0.0927383 on 1 procs for 100 steps with 64 atoms

variable r format r1 %.0f
next   i
jump SELF cycle1
variable i loop 50
*** Shrinking step 9/50 ***
run    100
PPPM/MOlC initialization ...
  G vector (1/distance) = 0.19789822
  grid = 8 8 8
  stencil order = 5
  estimated absolute RMS force accuracy = 0.012576125
  estimated relative force accuracy = 3.7872626e-05
  3d grid and FFT values/proc = 3375 512
Generated 0 of 0 mixed pair_coeff terms from arithmetic mixing rule
Step         TotEng         E_vdwl         E_coul         E_long         E_bond         KinEng         PotEng          Temp          Press          Volume        Density          CPU
800  -426.73626      102.17718      3749.1956     -4400.589       0              122.47995     -549.21621      323.53926     -540.65615      6307.4997      0.30353647     0
Loop time of 0.103158 on 1 procs for 100 steps with 64 atoms

variable r format r1 %.0f
next   i
jump SELF cycle1
variable i loop 50
*** Shrinking step 10/50 ***
run    100
PPPM/MOlC initialization ...
  G vector (1/distance) = 0.20008968
  grid = 8 8 8
  stencil order = 5
  estimated absolute RMS force accuracy = 0.011219397
  estimated relative force accuracy = 3.3786881e-05
  3d grid and FFT values/proc = 3375 512
Generated 0 of 0 mixed pair_coeff terms from arithmetic mixing rule
Step         TotEng         E_vdwl         E_coul         E_long         E_bond         KinEng         PotEng          Temp          Press          Volume        Density          CPU
900  -445.72182      112.60351      3768.5002     -4448.2246      0              121.39906     -567.12088      320.68401     -609.27251      5630.2776      0.3400465      0
Loop time of 0.116008 on 1 procs for 100 steps with 64 atoms

variable r format r1 %.0f
next   i
jump SELF cycle1
variable i loop 50
*** Shrinking step 11/50 ***
run    100
PPPM/MOlC initialization ...
  G vector (1/distance) = 0.202231
  grid = 8 8 8
  stencil order = 5
  estimated absolute RMS force accuracy = 0.010022872
  estimated relative force accuracy = 3.0183582e-05
  3d grid and FFT values/proc = 3375 512
Generated 0 of 0 mixed pair_coeff terms from arithmetic mixing rule
Step         TotEng         E_vdwl         E_coul         E_long         E_bond         KinEng         PotEng          Temp          Press          Volume        Density          CPU
1000  -481.08955      107.48518      3795.3057     -4499.9543      0              116.07381     -597.16336      306.61698     -1035.0783      5032.8985      0.38040827     0
Loop time of 0.16657 on 1 procs for 100 steps with 64 atoms

variable r format r1 %.0f
next   i
jump SELF cycle1
variable i loop 50
*** Shrinking step 12/50 ***
run    100
PPPM/MOlC initialization ...
  G vector (1/distance) = 0.20428363
  grid = 8 8 8
  stencil order = 5
  estimated absolute RMS force accuracy = 0.0089857171
  estimated relative force accuracy = 2.706022e-05
  3d grid and FFT values/proc = 3375 512
Generated 0 of 0 mixed pair_coeff terms from arithmetic mixing rule
Step         TotEng         E_vdwl         E_coul         E_long         E_bond         KinEng         PotEng          Temp          Press          Volume        Density          CPU
1100  -522.96047      127.239        3787.3348     -4546.06        0              108.52565     -631.48613      286.67801     -529.00878      4514.7634      0.42406568     0
Loop time of 0.169532 on 1 procs for 100 steps with 64 atoms

variable r format r1 %.0f
next   i
jump SELF cycle1
variable i loop 50
*** Shrinking step 13/50 ***
run    100
PPPM/MOlC initialization ...
  G vector (1/distance) = 0.20621631
  grid = 8 8 8
  stencil order = 5
  estimated absolute RMS force accuracy = 0.0080993429
  estimated relative force accuracy = 2.439093e-05
  3d grid and FFT values/proc = 3375 512
Generated 0 of 0 mixed pair_coeff terms from arithmetic mixing rule
Step         TotEng         E_vdwl         E_coul         E_long         E_bond         KinEng         PotEng          Temp          Press          Volume        Density          CPU
1200  -498.55222      126.53658      3848.9542     -4587.6393      0              113.5963      -612.14852      300.07247     -508.98061      4071.5424      0.47022873     0
Loop time of 0.163205 on 1 procs for 100 steps with 64 atoms

variable r format r1 %.0f
next   i
jump SELF cycle1
variable i loop 50
*** Shrinking step 14/50 ***
run    100
PPPM/MOlC initialization ...
  G vector (1/distance) = 0.20836448
  grid = 8 8 8
  stencil order = 5
  estimated absolute RMS force accuracy = 0.0072081367
  estimated relative force accuracy = 2.170709e-05
  3d grid and FFT values/proc = 3375 512
Generated 0 of 0 mixed pair_coeff terms from arithmetic mixing rule
Step         TotEng         E_vdwl         E_coul         E_long         E_bond         KinEng         PotEng          Temp          Press          Volume        Density          CPU
1300  -494.45376      104.51935      3922.7633     -4635.2295      0              113.49307     -607.94683      299.79979     -1460.717       3625.3427      0.52810351     0
Loop time of 0.179942 on 1 procs for 100 steps with 64 atoms

variable r format r1 %.0f
next   i
jump SELF cycle1
variable i loop 50
*** Shrinking step 15/50 ***
run    100
PPPM/MOlC initialization ...
  G vector (1/distance) = 0.21056306
  grid = 8 8 8
  stencil order = 5
  estimated absolute RMS force accuracy = 0.0063894857
  estimated relative force accuracy = 1.9241746e-05
  3d grid and FFT values/proc = 3375 512
Generated 0 of 0 mixed pair_coeff terms from arithmetic mixing rule
Step         TotEng         E_vdwl         E_coul         E_long         E_bond         KinEng         PotEng          Temp          Press          Volume        Density          CPU
1400  -478.93286      96.908436      3978.0173     -4687.1         0              133.24138     -612.17424      351.96632     -2032.6876      3214.7802      0.59554809     0
Loop time of 0.198076 on 1 procs for 100 steps with 64 atoms

variable r format r1 %.0f
next   i
jump SELF cycle1
variable i loop 50
*** Shrinking step 16/50 ***
run    100
PPPM/MOlC initialization ...
  G vector (1/distance) = 0.21258494
  grid = 8 8 8
  stencil order = 5
  estimated absolute RMS force accuracy = 0.0057124604
  estimated relative force accuracy = 1.7202905e-05
  3d grid and FFT values/proc = 3375 512
Generated 0 of 0 mixed pair_coeff terms from arithmetic mixing rule
Step         TotEng         E_vdwl         E_coul         E_long         E_bond         KinEng         PotEng          Temp          Press          Volume        Density          CPU
1500  -513.75169      109.26035      3988.3283     -4732.5664      0              121.22598     -634.97767      320.22681     -1476.1412      2874.5654      0.66603327     0
Loop time of 0.222988 on 1 procs for 100 steps with 64 atoms

variable r format r1 %.0f
next   i
jump SELF cycle1
variable i loop 50
*** Shrinking step 17/50 ***
run    100
PPPM/MOlC initialization ...
  G vector (1/distance) = 0.1986332
  grid = 6 6 6
  stencil order = 5
  estimated absolute RMS force accuracy = 0.01863706
  estimated relative force accuracy = 5.6124953e-05
  3d grid and FFT values/proc = 2197 216
Generated 0 of 0 mixed pair_coeff terms from arithmetic mixing rule
Step         TotEng         E_vdwl         E_coul         E_long         E_bond         KinEng         PotEng          Temp          Press          Volume        Density          CPU
1600  -509.20415      103.9757       3684.2758     -4420.7445      0              123.28877     -632.49292      325.67579     -1814.7891      2561.7408      0.7473653      0
Loop time of 0.255339 on 1 procs for 100 steps with 64 atoms

variable r format r1 %.0f
next   i
jump SELF cycle1
variable i loop 50
*** Shrinking step 18/50 ***
run    100
PPPM/MOlC initialization ...
  G vector (1/distance) = 0.20109497
  grid = 6 6 6
  stencil order = 5
  estimated absolute RMS force accuracy = 0.016383653
  estimated relative force accuracy = 4.9338884e-05
  3d grid and FFT values/proc = 2197 216
Generated 0 of 0 mixed pair_coeff terms from arithmetic mixing rule
Step         TotEng         E_vdwl         E_coul         E_long         E_bond         KinEng         PotEng          Temp          Press          Volume        Density          CPU
1700  -544.23026      115.29464      3697.0433     -4477.5553      0              120.98713     -665.21738      319.59586     -1173.2954      2253.4227      0.84962143     0
Loop time of 0.28492 on 1 procs for 100 steps with 64 atoms

variable r format r1 %.0f
next   i
jump SELF cycle1
variable i loop 50
*** Shrinking step 19/50 ***
run    100
PPPM/MOlC initialization ...
  G vector (1/distance) = 0.20306634
  grid = 6 6 6
  stencil order = 5
  estimated absolute RMS force accuracy = 0.014759291
  estimated relative force accuracy = 4.4447166e-05
  3d grid and FFT values/proc = 2197 216
Generated 0 of 0 mixed pair_coeff terms from arithmetic mixing rule
Step         TotEng         E_vdwl         E_coul         E_long         E_bond         KinEng         PotEng          Temp          Press          Volume        Density          CPU
1800  -560.64832      113.22164      3713.2074     -4522.2551      0              135.17772     -695.82604      357.08129     -2412.8802      2030.9941      0.94266951     0
Loop time of 0.309684 on 1 procs for 100 steps with 64 atoms

variable r format r1 %.0f
next   i
jump SELF cycle1
variable i loop 50
*** Shrinking step 20/50 ***
run    100
PPPM/MOlC initialization ...
  G vector (1/distance) = 0.20484119
  grid = 6 6 6
  stencil order = 5
  estimated absolute RMS force accuracy = 0.013427532
  estimated relative force accuracy = 4.0436613e-05
  3d grid and FFT values/proc = 2197 216
Generated 0 of 0 mixed pair_coeff terms from arithmetic mixing rule
Step         TotEng         E_vdwl         E_coul         E_long         E_bond         KinEng         PotEng          Temp          Press          Volume        Density          CPU
1900  -592.4465       111.85904      3751.9932     -4560.8208      0              104.52205     -696.96855      276.10222     -239.09791      1848.9476      1.0354843      0
Loop time of 0.340445 on 1 procs for 100 steps with 64 atoms

variable r format r1 %.0f
next   i
jump SELF cycle1
variable i loop 50
*** Shrinking step 21/50 ***
run    100
PPPM/MOlC initialization ...
  G vector (1/distance) = 0.20576485
  grid = 6 6 6
  stencil order = 5
  estimated absolute RMS force accuracy = 0.012777248
  estimated relative force accuracy = 3.8478303e-05
  3d grid and FFT values/proc = 2197 216
Generated 0 of 0 mixed pair_coeff terms from arithmetic mixing rule
Step         TotEng         E_vdwl         E_coul         E_long         E_bond         KinEng         PotEng          Temp          Press          Volume        Density          CPU
2000  -604.90033      121.20492      3734.7955     -4581.9824      0              121.08157     -725.9819       319.84534     -123.94961      1759.8509      1.0879082      0
Loop time of 0.339135 on 1 procs for 100 steps with 64 atoms

variable r format r1 %.0f
next   i
jump SELF cycle1
variable i loop 50
*** Shrinking step 22/50 ***
run    100
PPPM/MOlC initialization ...
  G vector (1/distance) = 0.20537383
  grid = 6 6 6
  stencil order = 5
  estimated absolute RMS force accuracy = 0.013048952
  estimated relative force accuracy = 3.9296531e-05
  3d grid and FFT values/proc = 2197 216
Generated 0 of 0 mixed pair_coeff terms from arithmetic mixing rule
Step         TotEng         E_vdwl         E_coul         E_long         E_bond         KinEng         PotEng          Temp          Press          Volume        Density          CPU
2100  -623.45897      117.36499      3716.0083     -4573.396       0              116.56365     -740.02262      307.91093     -1480.7304      1797.0828      1.065369       0
Loop time of 0.330551 on 1 procs for 100 steps with 64 atoms

variable r format r1 %.0f
next   i
jump SELF cycle1
variable i loop 50
*** Shrinking step 23/50 ***
run    100
PPPM/MOlC initialization ...
  G vector (1/distance) = 0.20517223
  grid = 6 6 6
  stencil order = 5
  estimated absolute RMS force accuracy = 0.013191085
  estimated relative force accuracy = 3.9724561e-05
  3d grid and FFT values/proc = 2197 216
Generated 0 of 0 mixed pair_coeff terms from arithmetic mixing rule
Step         TotEng         E_vdwl         E_coul         E_long         E_bond         KinEng         PotEng          Temp          Press          Volume        Density          CPU
2200  -616.79049      93.332859      3748.0028     -4568.6601      0              110.53393     -727.32442      291.983       -4551.1899      1816.5565      1.0539481      0
Loop time of 0.333118 on 1 procs for 100 steps with 64 atoms

variable r format r1 %.0f
next   i
jump SELF cycle1
variable i loop 50
*** Shrinking step 24/50 ***
run    100
PPPM/MOlC initialization ...
  G vector (1/distance) = 0.20562985
  grid = 6 6 6
  stencil order = 5
  estimated absolute RMS force accuracy = 0.012870464
  estimated relative force accuracy = 3.8759021e-05
  3d grid and FFT values/proc = 2197 216
Generated 0 of 0 mixed pair_coeff terms from arithmetic mixing rule
Step         TotEng         E_vdwl         E_coul         E_long         E_bond         KinEng         PotEng          Temp          Press          Volume        Density          CPU
2300  -636.38253      130.1777       3715.1204     -4579.0101      0              97.329521     -733.71205      257.10266     -133.98215      1772.6253      1.0800682      0
Loop time of 0.337889 on 1 procs for 100 steps with 64 atoms

variable r format r1 %.0f
next   i
jump SELF cycle1
variable i loop 50
*** Shrinking step 25/50 ***
run    100
PPPM/MOlC initialization ...
  G vector (1/distance) = 0.20563959
  grid = 6 6 6
  stencil order = 5
  estimated absolute RMS force accuracy = 0.012863716
  estimated relative force accuracy = 3.8738698e-05
  3d grid and FFT values/proc = 2197 216
Generated 0 of 0 mixed pair_coeff terms from arithmetic mixing rule
Step         TotEng         E_vdwl         E_coul         E_long         E_bond         KinEng         PotEng          Temp          Press          Volume        Density          CPU
2400  -636.60279      133.45069      3699.1542     -4579.3255      0              110.11787     -746.72066      290.88396      160.30145      1771.7005      1.080632       0
Loop time of 0.329755 on 1 procs for 100 steps with 64 atoms

variable r format r1 %.0f
next   i
jump SELF cycle1
variable i loop 50
*** Shrinking step 26/50 ***
run    100
PPPM/MOlC initialization ...
  G vector (1/distance) = 0.20524159
  grid = 6 6 6
  stencil order = 5
  estimated absolute RMS force accuracy = 0.013142021
  estimated relative force accuracy = 3.9576807e-05
  3d grid and FFT values/proc = 2197 216
Generated 0 of 0 mixed pair_coeff terms from arithmetic mixing rule
Step         TotEng         E_vdwl         E_coul         E_long         E_bond         KinEng         PotEng          Temp          Press          Volume        Density          CPU
2500  -642.20498      132.372        3676.9478     -4570.4612      0              118.93639     -761.14136      314.17869     -1661.0275      1809.8345      1.0578626      0
Loop time of 0.327703 on 1 procs for 100 steps with 64 atoms

variable r format r1 %.0f
next   i
jump SELF cycle1
variable i loop 50
*** Shrinking step 27/50 ***
run    100
PPPM/MOlC initialization ...
  G vector (1/distance) = 0.20492832
  grid = 6 6 6
  stencil order = 5
  estimated absolute RMS force accuracy = 0.013364923
  estimated relative force accuracy = 4.0248069e-05
  3d grid and FFT values/proc = 2197 216
Generated 0 of 0 mixed pair_coeff terms from arithmetic mixing rule
Step         TotEng         E_vdwl         E_coul         E_long         E_bond         KinEng         PotEng          Temp          Press          Volume        Density          CPU
2600  -648.57297      136.90471      3670.6201     -4562.501       0              106.40324     -754.97622      281.07152     -859.49219      1840.3713      1.0403097      0
Loop time of 0.326074 on 1 procs for 100 steps with 64 atoms

variable r format r1 %.0f
next   i
jump SELF cycle1
variable i loop 50
*** Shrinking step 28/50 ***
run    100
PPPM/MOlC initialization ...
  G vector (1/distance) = 0.2048569
  grid = 6 6 6
  stencil order = 5
  estimated absolute RMS force accuracy = 0.01341622
  estimated relative force accuracy = 4.0402549e-05
  3d grid and FFT values/proc = 2197 216
Generated 0 of 0 mixed pair_coeff terms from arithmetic mixing rule
Step         TotEng         E_vdwl         E_coul         E_long         E_bond         KinEng         PotEng          Temp          Press          Volume        Density          CPU
2700  -627.0329       131.46817      3686.8864     -4561.5564      0              116.16894     -743.20184      306.86828     -1152.4198      1847.3981      1.0363528      0
Loop time of 0.333522 on 1 procs for 100 steps with 64 atoms

variable r format r1 %.0f
next   i
jump SELF cycle1
variable i loop 50
*** Shrinking step 29/50 ***
run    100
PPPM/MOlC initialization ...
  G vector (1/distance) = 0.20515279
  grid = 6 6 6
  stencil order = 5
  estimated absolute RMS force accuracy = 0.013204861
  estimated relative force accuracy = 3.9766046e-05
  3d grid and FFT values/proc = 2197 216
Generated 0 of 0 mixed pair_coeff terms from arithmetic mixing rule
Step         TotEng         E_vdwl         E_coul         E_long         E_bond         KinEng         PotEng          Temp          Press          Volume        Density          CPU
2800  -633.23005      128.75658      3695.4353     -4568.3606      0              110.93862     -744.16867      293.05204     -1104.8141      1818.4438      1.0528542      0
Loop time of 0.38121 on 1 procs for 100 steps with 64 atoms

variable r format r1 %.0f
next   i
jump SELF cycle1
variable i loop 50
*** Shrinking step 30/50 ***
run    100
PPPM/MOlC initialization ...
  G vector (1/distance) = 0.2057312
  grid = 6 6 6
  stencil order = 5
  estimated absolute RMS force accuracy = 0.012800425
  estimated relative force accuracy = 3.8548101e-05
  3d grid and FFT values/proc = 2197 216
Generated 0 of 0 mixed pair_coeff terms from arithmetic mixing rule
Step         TotEng         E_vdwl         E_coul         E_long         E_bond         KinEng         PotEng          Temp          Press          Volume        Density          CPU
2900  -635.89773      148.55069      3687.8237     -4580.5981      0              108.32595     -744.22368      286.15049      2731.8441      1763.0272      1.0859482      0
Loop time of 0.342342 on 1 procs for 100 steps with 64 atoms

variable r format r1 %.0f
next   i
jump SELF cycle1
variable i loop 50
*** Shrinking step 31/50 ***
run    100
PPPM/MOlC initialization ...
  G vector (1/distance) = 0.20558348
  grid = 6 6 6
  stencil order = 5
  estimated absolute RMS force accuracy = 0.012902627
  estimated relative force accuracy = 3.8855878e-05
  3d grid and FFT values/proc = 2197 216
Generated 0 of 0 mixed pair_coeff terms from arithmetic mixing rule
Step         TotEng         E_vdwl         E_coul         E_long         E_bond         KinEng         PotEng          Temp          Press          Volume        Density          CPU
3000  -627.9711       150.76825      3680.1122     -4578.2654      0              119.41389     -747.38499      315.44003      2217.0225      1777.0327      1.0773894      0
Loop time of 0.336988 on 1 procs for 100 steps with 64 atoms

variable r format r1 %.0f
next   i
jump SELF cycle1
variable i loop 50
*** Shrinking step 32/50 ***
run    100
PPPM/MOlC initialization ...
  G vector (1/distance) = 0.2047318
  grid = 6 6 6
  stencil order = 5
  estimated absolute RMS force accuracy = 0.013506506
  estimated relative force accuracy = 4.067444e-05
  3d grid and FFT values/proc = 2197 216
Generated 0 of 0 mixed pair_coeff terms from arithmetic mixing rule
Step         TotEng         E_vdwl         E_coul         E_long         E_bond         KinEng         PotEng          Temp          Press          Volume        Density          CPU
3100  -595.23143      110.98311      3735.1399     -4558.6808      0              117.32633     -712.55777      309.92561     -1806.5281      1859.7652      1.0294613      0
Loop time of 0.324953 on 1 procs for 100 steps with 64 atoms

variable r format r1 %.0f
next   i
jump SELF cycle1
variable i loop 50
*** Shrinking step 33/50 ***
run    100
PPPM/MOlC initialization ...
  G vector (1/distance) = 0.20478052
  grid = 6 6 6
  stencil order = 5
  estimated absolute RMS force accuracy = 0.013471282
  estimated relative force accuracy = 4.0568366e-05
  3d grid and FFT values/proc = 2197 216
Generated 0 of 0 mixed pair_coeff terms from arithmetic mixing rule
Step         TotEng         E_vdwl         E_coul         E_long         E_bond         KinEng         PotEng          Temp          Press          Volume        Density          CPU
3200  -598.33073      126.85952      3700.5886     -4560.1582      0              134.37935     -732.71008      354.97234     -1294.6504      1854.9405      1.0321389      0
Loop time of 0.325536 on 1 procs for 100 steps with 64 atoms

variable r format r1 %.0f
next   i
jump SELF cycle1
variable i loop 50
*** Shrinking step 34/50 ***
run    100
PPPM/MOlC initialization ...
  G vector (1/distance) = 0.20480069
  grid = 6 6 6
  stencil order = 5
  estimated absolute RMS force accuracy = 0.013456724
  estimated relative force accuracy = 4.0524523e-05
  3d grid and FFT values/proc = 2197 216
Generated 0 of 0 mixed pair_coeff terms from arithmetic mixing rule
Step         TotEng         E_vdwl         E_coul         E_long         E_bond         KinEng         PotEng          Temp          Press          Volume        Density          CPU
3300  -596.8757       112.67229      3722.7572     -4560.7226      0              128.4174      -725.2931       339.22343     -2135.2994      1852.9463      1.0332497      0
Loop time of 0.329411 on 1 procs for 100 steps with 64 atoms

variable r format r1 %.0f
next   i
jump SELF cycle1
variable i loop 50
*** Shrinking step 35/50 ***
run    100
PPPM/MOlC initialization ...
  G vector (1/distance) = 0.20472209
  grid = 6 6 6
  stencil order = 5
  estimated absolute RMS force accuracy = 0.013513536
  estimated relative force accuracy = 4.0695613e-05
  3d grid and FFT values/proc = 2197 216
Generated 0 of 0 mixed pair_coeff terms from arithmetic mixing rule
Step         TotEng         E_vdwl         E_coul         E_long         E_bond         KinEng         PotEng          Temp          Press          Volume        Density          CPU
3400  -610.4452       118.53778      3717.0708     -4558.9774      0              112.9236      -723.3688       298.29549     -1572.6709      1860.7282      1.0289285      0
Loop time of 0.324265 on 1 procs for 100 steps with 64 atoms

variable r format r1 %.0f
next   i
jump SELF cycle1
variable i loop 50
*** Shrinking step 36/50 ***
run    100
PPPM/MOlC initialization ...
  G vector (1/distance) = 0.20457639
  grid = 6 6 6
  stencil order = 5
  estimated absolute RMS force accuracy = 0.013619438
  estimated relative force accuracy = 4.1014535e-05
  3d grid and FFT values/proc = 2197 216
Generated 0 of 0 mixed pair_coeff terms from arithmetic mixing rule
Step         TotEng         E_vdwl         E_coul         E_long         E_bond         KinEng         PotEng          Temp          Press          Volume        Density          CPU
3500  -617.44703      116.93006      3715.1964     -4555.4977      0              105.92422     -723.37125      279.80614     -1816.0199      1875.2334      1.0209696      0
Loop time of 0.323663 on 1 procs for 100 steps with 64 atoms

variable r format r1 %.0f
next   i
jump SELF cycle1
variable i loop 50
*** Shrinking step 37/50 ***
run    100
PPPM/MOlC initialization ...
  G vector (1/distance) = 0.20459968
  grid = 6 6 6
  stencil order = 5
  estimated absolute RMS force accuracy = 0.013602455
  estimated relative force accuracy = 4.096339e-05
  3d grid and FFT values/proc = 2197 216
Generated 0 of 0 mixed pair_coeff terms from arithmetic mixing rule
Step         TotEng         E_vdwl         E_coul         E_long         E_bond         KinEng         PotEng          Temp          Press          Volume        Density          CPU
3600  -603.42964      118.74949      3712.3781     -4555.9334      0              121.37613     -724.80577      320.62343     -1560.7571      1872.9073      1.0222376      0
Loop time of 0.32472 on 1 procs for 100 steps with 64 atoms

variable r format r1 %.0f
next   i
jump SELF cycle1
variable i loop 50
*** Shrinking step 38/50 ***
run    100
PPPM/MOlC initialization ...
  G vector (1/distance) = 0.20495611
  grid = 6 6 6
  stencil order = 5
  estimated absolute RMS force accuracy = 0.013345012
  estimated relative force accuracy = 4.0188108e-05
  3d grid and FFT values/proc = 2197 216
Generated 0 of 0 mixed pair_coeff terms from arithmetic mixing rule
Step         TotEng         E_vdwl         E_coul         E_long         E_bond         KinEng         PotEng          Temp          Press          Volume        Density          CPU
3700  -601.0851       111.84693      3731.07       -4563.7003      0              119.69827     -720.78336      316.19124     -1733.4526      1837.6438      1.0418538      0
Loop time of 0.33682 on 1 procs for 100 steps with 64 atoms

variable r format r1 %.0f
next   i
jump SELF cycle1
variable i loop 50
*** Shrinking step 39/50 ***
run    100
PPPM/MOlC initialization ...
  G vector (1/distance) = 0.20558678
  grid = 6 6 6
  stencil order = 5
  estimated absolute RMS force accuracy = 0.012900337
  estimated relative force accuracy = 3.8848982e-05
  3d grid and FFT values/proc = 2197 216
Generated 0 of 0 mixed pair_coeff terms from arithmetic mixing rule
Step         TotEng         E_vdwl         E_coul         E_long         E_bond         KinEng         PotEng          Temp          Press          Volume        Density          CPU
3800  -592.31925      135.59522      3720.5463     -4578.3139      0              129.85307     -722.17232      343.01587      966.31322      1776.7189      1.0775797      0
Loop time of 0.343127 on 1 procs for 100 steps with 64 atoms

variable r format r1 %.0f
next   i
jump SELF cycle1
variable i loop 50
*** Shrinking step 40/50 ***
run    100
PPPM/MOlC initialization ...
  G vector (1/distance) = 0.20586338
  grid = 6 6 6
  stencil order = 5
  estimated absolute RMS force accuracy = 0.0127096
  estimated relative force accuracy = 3.8274582e-05
  3d grid and FFT values/proc = 2197 216
Generated 0 of 0 mixed pair_coeff terms from arithmetic mixing rule
Step         TotEng         E_vdwl         E_coul         E_long         E_bond         KinEng         PotEng          Temp          Press          Volume        Density          CPU
3900  -609.83452      120.80684      3734.741      -4584.343       0              118.96069     -728.79521      314.24288     -794.73233      1750.5798      1.0936698      0
Loop time of 0.345831 on 1 procs for 100 steps with 64 atoms

variable r format r1 %.0f
next   i
jump SELF cycle1
variable i loop 50
*** Shrinking step 41/50 ***
run    100
PPPM/MOlC initialization ...
  G vector (1/distance) = 0.20541369
  grid = 6 6 6
  stencil order = 5
  estimated absolute RMS force accuracy = 0.013021017
  estimated relative force accuracy = 3.9212406e-05
  3d grid and FFT values/proc = 2197 216
Generated 0 of 0 mixed pair_coeff terms from arithmetic mixing rule
Loop time of 0.330416 on 1 procs for 100 steps with 64 atoms

variable r format r1 %.0f
next   i
jump SELF cycle1
variable i loop 50
*** Shrinking step 42/50 ***
run    100
PPPM/MOlC initialization ...
  G vector (1/distance) = 0.20447293
  grid = 6 6 6
  stencil order = 5
  estimated absolute RMS force accuracy = 0.013695091
  estimated relative force accuracy = 4.1242359e-05
  3d grid and FFT values/proc = 2197 216
Generated 0 of 0 mixed pair_coeff terms from arithmetic mixing rule
Loop time of 0.326505 on 1 procs for 100 steps with 64 atoms

variable r format r1 %.0f
next   i
jump SELF cycle1
variable i loop 50
*** Shrinking step 43/50 ***
run    100
PPPM/MOlC initialization ...
  G vector (1/distance) = 0.20505177
  grid = 6 6 6
  stencil order = 5
  estimated absolute RMS force accuracy = 0.013276682
  estimated relative force accuracy = 3.9982333e-05
  3d grid and FFT values/proc = 2197 216
Generated 0 of 0 mixed pair_coeff terms from arithmetic mixing rule
Loop time of 0.36117 on 1 procs for 100 steps with 64 atoms

variable r format r1 %.0f
next   i
jump SELF cycle1
variable i loop 50
*** Shrinking step 44/50 ***
run    100
PPPM/MOlC initialization ...
  G vector (1/distance) = 0.20594453
  grid = 6 6 6
  stencil order = 5
  estimated absolute RMS force accuracy = 0.012654135
  estimated relative force accuracy = 3.8107551e-05
  3d grid and FFT values/proc = 2197 216
Generated 0 of 0 mixed pair_coeff terms from arithmetic mixing rule
Loop time of 0.378514 on 1 procs for 100 steps with 64 atoms

variable r format r1 %.0f
next   i
jump SELF cycle1
variable i loop 50
*** Shrinking step 45/50 ***
run    100
PPPM/MOlC initialization ...
  G vector (1/distance) = 0.20530126
  grid = 6 6 6
  stencil order = 5
  estimated absolute RMS force accuracy = 0.013099955
  estimated relative force accuracy = 3.9450126e-05
  3d grid and FFT values/proc = 2197 216
Generated 0 of 0 mixed pair_coeff terms from arithmetic mixing rule
Loop time of 0.352164 on 1 procs for 100 steps with 64 atoms

variable r format r1 %.0f
next   i
jump SELF cycle1
variable i loop 50
*** Shrinking step 46/50 ***
run    100
PPPM/MOlC initialization ...
  G vector (1/distance) = 0.2046695
  grid = 6 6 6
  stencil order = 5
  estimated absolute RMS force accuracy = 0.013551671
  estimated relative force accuracy = 4.0810455e-05
  3d grid and FFT values/proc = 2197 216
Generated 0 of 0 mixed pair_coeff terms from arithmetic mixing rule
Loop time of 0.325368 on 1 procs for 100 steps with 64 atoms

variable r format r1 %.0f
next   i
jump SELF cycle1
variable i loop 50
*** Shrinking step 47/50 ***
run    100
PPPM/MOlC initialization ...
  G vector (1/distance) = 0.20463422
  grid = 6 6 6
  stencil order = 5
  estimated absolute RMS force accuracy = 0.013577312
  estimated relative force accuracy = 4.0887671e-05
  3d grid and FFT values/proc = 2197 216
Generated 0 of 0 mixed pair_coeff terms from arithmetic mixing rule
Loop time of 0.352793 on 1 procs for 100 steps with 64 atoms

variable r format r1 %.0f
next   i
jump SELF cycle1
variable i loop 50
*** Shrinking step 48/50 ***
run    100
PPPM/MOlC initialization ...
  G vector (1/distance) = 0.20480631
  grid = 6 6 6
  stencil order = 5
  estimated absolute RMS force accuracy = 0.013452664
  estimated relative force accuracy = 4.0512298e-05
  3d grid and FFT values/proc = 2197 216
Generated 0 of 0 mixed pair_coeff terms from arithmetic mixing rule
Loop time of 0.343991 on 1 procs for 100 steps with 64 atoms

variable r format r1 %.0f
next   i
jump SELF cycle1
variable i loop 50
*** Shrinking step 49/50 ***
run    100
PPPM/MOlC initialization ...
  G vector (1/distance) = 0.20489268
  grid = 6 6 6
  stencil order = 5
  estimated absolute RMS force accuracy = 0.013390499
  estimated relative force accuracy = 4.0325091e-05
  3d grid and FFT values/proc = 2197 216
Generated 0 of 0 mixed pair_coeff terms from arithmetic mixing rule
Loop time of 0.339347 on 1 procs for 100 steps with 64 atoms

variable r format r1 %.0f
next   i
jump SELF cycle1
variable i loop 50
*** Shrinking step 50/50 ***
run    100
PPPM/MOlC initialization ...
  G vector (1/distance) = 0.20504794
  grid = 6 6 6
  stencil order = 5
  estimated absolute RMS force accuracy = 0.013279411
  estimated relative force accuracy = 3.9990552e-05
  3d grid and FFT values/proc = 2197 216
Generated 0 of 0 mixed pair_coeff terms from arithmetic mixing rule
Loop time of 0.340129 on 1 procs for 100 steps with 64 atoms

variable r format r1 %.0f
next   i
jump SELF cycle1
variable i delete

# 2. Production run.
run   50000
PPPM/MOlC initialization ...
  G vector (1/distance) = 0.20510915
  grid = 6 6 6
  stencil order = 5
  estimated absolute RMS force accuracy = 0.013235842
  estimated relative force accuracy = 3.9859344e-05
  3d grid and FFT values/proc = 2197 216
Generated 0 of 0 mixed pair_coeff terms from arithmetic mixing rule
Loop time of 222.549 on 1 procs for 50000 steps with 64 atoms
